Circuit: * D:\Projekty\PreAMP\LTspice\Draft1.asc


Date: Wed Jun 29 23:20:39 2022
Total elapsed time: 0.042 seconds.

tnom = 27
temp = 27
method = trap
totiter = 0
traniter = 0
tranpoints = 0
accept = 0
rejected = 0
matrix size = 4
fillins = 1
solver = Normal

